** Full model for BESO (FCStd pipeline)
*Heading
Model: examples/beso from FCStd + Gmsh volume mesh
**
*Node, NSET=Nall
1, -2986.552986266, 23697.1412862, 12000.0
2, -2986.552986266, 23697.1412862, -14000.0
3, -21970.20888407, -9183.095417735, -14000.0
4, -21970.20888407, -9183.095417735, 12000.0
5, 2986.552986266, 23697.1412862, -14000.0
6, 2986.552986266, 23697.1412862, 12000.0
7, -18937.89835865, -14435.19989037, 12000.0
8, -18937.89835865, -14435.19989037, -14000.0
9, 18937.89835865, -14435.19989037, 12000.0
10, 21970.20888407, -9183.095417735, 12000.0
11, 3250.0, 0.0, 12000.0
12, 18937.89835865, -14435.19989037, -14000.0
13, 21970.20888407, -9183.095417735, -14000.0
14, 3250.0, 0.0, 88000.0
15, -2986.552986266, 23697.1412862, 9111.111111111
16, -2986.552986266, 23697.1412862, 6222.222222222
17, -2986.552986266, 23697.1412862, 3333.333333333
18, -2986.552986266, 23697.1412862, 444.4444444444
19, -2986.552986266, 23697.1412862, -2444.444444444
20, -2986.552986266, 23697.1412862, -5333.333333333
** ... 1352 like lines cut
**
** Volume elements
*Element, TYPE=C3D4, Elset=design_space
2432, 1186, 247, 277, 1217
2444, 1171, 287, 1165, 1255
2451, 1173, 247, 1186, 1232
2459, 425, 446, 1175, 1227
2460, 222, 219, 360, 1222
2461, 1165, 287, 280, 1255
2464, 1165, 337, 1171, 1255
2467, 1186, 247, 1217, 1232
2479, 1139, 1179, 1320, 1366
2480, 1185, 1133, 1183, 1348
2516, 1147, 1183, 1231, 1300
2531, 1165, 287, 1171, 1294
2533, 1147, 1185, 1191, 1311
2537, 1190, 355, 1144, 1210
2540, 1163, 248, 1189, 1254
2543, 446, 393, 425, 1175
2544, 1217, 297, 1174, 1232
2555, 1182, 1137, 1206, 1263
2569, 1144, 355, 1190, 1303
2571, 1168, 1133, 1206, 1257
** ... 1712 like lines cut
*Element, TYPE=C3D4, Elset=nondesign_space
2433, 1016, 1013, 1152, 1215
2434, 1152, 849, 1016, 1215
2435, 1028, 1025, 1157, 1225
2436, 1156, 965, 880, 1195
2437, 1157, 900, 1028, 1225
2438, 1271, 114, 1164, 1292
2439, 1016, 849, 1152, 1239
2440, 1015, 1016, 1152, 1239
2441, 919, 987, 1146, 1253
2442, 1152, 849, 1235, 1239
2443, 1024, 888, 1156, 1225
2445, 1154, 473, 470, 1219
2446, 627, 1052, 1146, 1267
2447, 1247, 665, 1159, 1306
2448, 922, 1150, 1208, 1211
2449, 1157, 900, 1233, 1237
2450, 1200, 914, 1201, 1368
2452, 1159, 603, 1262, 1308
2453, 1156, 880, 965, 1226
2454, 1146, 1057, 838, 1200
** ... 2720 like lines cut
**
*Nset, Nset=bottom_fix
2, 3, 5, 8, 12, 13, 23, 24, 25,
25, 26, 27, 41, 59, 83, 84, 85, 86,
86, 87, 88, 89, 90, 91, 92, 93, 301,
301, 302, 303, 304, 305, 306, 307, 308, 309,
309, 310, 311, 312, 313, 314, 315, 316, 317,
317, 318, 319, 320, 321, 322, 323, 324, 325,
325, 326, 327, 328, 329, 330, 331, 332, 333,
333, 334, 
**
** Materials (MPa, t/mm^3)
*Material, Name=Material-1
*Elastic
200000.0, 0.27
*Density
7.833e-09
**
*Solid section, Elset=design_space, Material=Material-1
*Solid section, Elset=nondesign_space, Material=Material-1
**
*Step
*Static
**
*Boundary, op=NEW
*Boundary
bottom_fix, 1, 1, 0
bottom_fix, 2, 2, 0
bottom_fix, 3, 3, 0
**
*Cload, op=NEW
*Cload
1122, 1, 281000.0
**
*Node file
RF, U
*El file
S
*End step
