** Full model for BESO (FCStd pipeline + FEM BC remap)
*Heading
Model: volume mesh + boundary/CLOAD remapped from FEM reference INP
**
*Node, NSET=Nall
1, -2986.5529862660, 23697.1412862000, 12000.0000000000
2, -2986.5529862660, 23697.1412862000, -14000.0000000000
3, -21970.2088840700, -9183.0954177350, -14000.0000000000
4, -21970.2088840700, -9183.0954177350, 12000.0000000000
5, 2986.5529862660, 23697.1412862000, -14000.0000000000
6, 2986.5529862660, 23697.1412862000, 12000.0000000000
7, -18937.8983586500, -14435.1998903700, 12000.0000000000
8, -18937.8983586500, -14435.1998903700, -14000.0000000000
9, 18937.8983586500, -14435.1998903700, 12000.0000000000
10, 21970.2088840700, -9183.0954177350, 12000.0000000000
11, 3250.0000000000, 0.0000000000, 12000.0000000000
12, 18937.8983586500, -14435.1998903700, -14000.0000000000
13, 21970.2088840700, -9183.0954177350, -14000.0000000000
14, 3250.0000000000, 0.0000000000, 88000.0000000000
15, -2986.5529862660, 23697.1412862000, 9111.1111111110
16, -2986.5529862660, 23697.1412862000, 6222.2222222220
17, -2986.5529862660, 23697.1412862000, 3333.3333333330
18, -2986.5529862660, 23697.1412862000, 444.4444444444
19, -2986.5529862660, 23697.1412862000, -2444.4444444440
20, -2986.5529862660, 23697.1412862000, -5333.3333333330
** ... 1352 like lines cut
**
** Volume elements
*Element, TYPE=C3D4, Elset=design_space
2432, 1186, 247, 277, 1217
2444, 1171, 287, 1165, 1255
2451, 1173, 247, 1186, 1232
2459, 425, 446, 1175, 1227
2460, 222, 219, 360, 1222
2461, 1165, 287, 280, 1255
2464, 1165, 337, 1171, 1255
2467, 1186, 247, 1217, 1232
2479, 1139, 1179, 1320, 1366
2480, 1185, 1133, 1183, 1348
2516, 1147, 1183, 1231, 1300
2531, 1165, 287, 1171, 1294
2533, 1147, 1185, 1191, 1311
2537, 1190, 355, 1144, 1210
2540, 1163, 248, 1189, 1254
2543, 446, 393, 425, 1175
2544, 1217, 297, 1174, 1232
2555, 1182, 1137, 1206, 1263
2569, 1144, 355, 1190, 1303
2571, 1168, 1133, 1206, 1257
** ... 1712 like lines cut
*Element, TYPE=C3D4, Elset=nondesign_space
2433, 1016, 1013, 1152, 1215
2434, 1152, 849, 1016, 1215
2435, 1028, 1025, 1157, 1225
2436, 1156, 965, 880, 1195
2437, 1157, 900, 1028, 1225
2438, 1271, 114, 1164, 1292
2439, 1016, 849, 1152, 1239
2440, 1015, 1016, 1152, 1239
2441, 919, 987, 1146, 1253
2442, 1152, 849, 1235, 1239
2443, 1024, 888, 1156, 1225
2445, 1154, 473, 470, 1219
2446, 627, 1052, 1146, 1267
2447, 1247, 665, 1159, 1306
2448, 922, 1150, 1208, 1211
2449, 1157, 900, 1233, 1237
2450, 1200, 914, 1201, 1368
2452, 1159, 603, 1262, 1308
2453, 1156, 880, 965, 1226
2454, 1146, 1057, 838, 1200
** ... 2720 like lines cut
**
*Nset, Nset=bottom_fix
2, 3, 5, 8, 12, 13, 23, 24, 25,
25, 26, 27, 41, 59, 83, 84, 85, 86,
86, 87, 88, 89, 90, 91, 92, 93, 301,
301, 302, 303, 304, 305, 306, 307, 308, 309,
309, 310, 311, 312, 313, 314, 315, 316, 317,
317, 318, 319, 320, 321, 322, 323, 324, 325,
325, 326, 327, 328, 329, 330, 331, 332, 333,
333, 334, 
**
** Materials (MPa, t/mm^3)
*Material, Name=Material-design
*Elastic
200000.0, 0.27
*Density
7.833e-09
*Material, Name=Material-nondesign
*Elastic
200000.0, 0.27
*Density
7.833e-09
**
*Solid section, Elset=design_space, Material=Material-design
*Solid section, Elset=nondesign_space, Material=Material-nondesign
**
*Step
*Static
**
*Boundary, op=NEW
*Boundary
** bottom_fix fallback (FEM 无有效固定集或显式关闭仅 FEM 固定时)
bottom_fix, 1, 1, 0
bottom_fix, 2, 2, 0
bottom_fix, 3, 3, 0
**
*Cload, op=NEW
*Cload
14, 3, 0.0
154, 3, 0.0
158, 3, 153867.2179814
159, 3, 151177.4464519
160, 3, 151813.6147533
164, 3, 0.0
1122, 3, 0.0
1126, 3, 0.0
1128, 3, 0.0
1130, 3, 313577.636308
1131, 3, 290053.0238347
**
*Node file
RF, U
*El file
S
*End step
