*HEADING
test
*NODE
1, 1000.0, 0, 0
*ELEMENT, TYPE=C3D4, ELSET=E1
1, 1, 2, 3, 4
*NSET, NSET=NS
1, 2, 3, 4
*ELSET, ELSET=E1
1
*MATERIAL, NAME=M
*ELASTIC
210000, 0.3
*SOLID SECTION, ELSET=E1, MATERIAL=M
*STEP
*STATIC
1,1,1e-5,1
*BOUNDARY
1,1,3,0
*END STEP
