*Node, NSET=Nall
1, 28310.126779718, -16344.859317103, -14000.000000000
2, 28310.126779659, -16344.859317325, 12000.000000000
3, 31618.100151798, -18254.718634205, -20000.000000000
4, -28310.126779659, -16344.859317325, 12000.000000000
5, -28310.126779718, -16344.859317103, -14000.000000000
6, -31618.100151798, -18254.718634205, -20000.000000000
7, 0.000000000, 32689.718634205, -14000.000000000
8, -0.000000000, 32689.718634205, 12000.000000000
9, 0.000000000, 36509.437268411, -20000.000000000
10, 0.000000000, 2069.014260195, -20000.000000000
11, -0.000000000, 2069.014260195, 12000.000000000
12, -0.000000000, 21230.562731589, -20000.000000000
13, -0.000000000, 21230.562731589, -14000.000000000
14, -0.000000000, 25050.281365794, 12000.000000000
15, -18386.206662202, -10615.281365795, -20000.000000000
16, -18386.206662323, -10615.281365572, -14000.000000000
17, -21694.180034854, -12525.140682675, 12000.000000000
18, 18386.206662324, -10615.281365572, -14000.000000000
19, 18386.206662202, -10615.281365795, -20000.000000000
20, 21694.180034855, -12525.140682675, 12000.000000000
** ... 17 like lines cut
*Element, TYPE=B31, ELSET=Eall
1, 1, 2
2, 1, 3
3, 1, 20
4, 4, 5
5, 5, 6
6, 5, 17
7, 7, 8
8, 7, 9
9, 10, 11
10, 11, 32
11, 12, 13
12, 13, 14
13, 14, 24
14, 14, 22
15, 15, 16
16, 16, 17
17, 18, 19
18, 18, 20
19, 21, 22
20, 21, 34
** ... 17 like lines cut
*ELSET,ELSET=ESEC_1
13, 14, 21, 26, 27, 28
*ELSET,ELSET=ESEC_2
19, 23, 29
*ELSET,ELSET=ESEC_3
10, 20, 22, 24, 25, 30
*ELSET,ELSET=ESEC_4
31, 32, 33, 34, 35, 36, 37
*ELSET,ELSET=ESEC_5
9
*ELSET,ELSET=ESEC_6
1, 4, 12, 16, 18
*ELSET,ELSET=ESEC_7
7
*ELSET,ELSET=ESEC_8
2, 3, 5, 6, 8, 11, 15, 17
*MATERIAL, NAME=SolidMaterial
*ELASTIC
210000, 0.3
*BEAM SECTION,SECTION=CIRC,ELSET=ESEC_1,MATERIAL=SolidMaterial
799.999999984
-0.881905362, 0.471426487, 0.000000000
*BEAM SECTION,SECTION=CIRC,ELSET=ESEC_2,MATERIAL=SolidMaterial
826.815317714
-0.500000000, -0.866025404, 0.000000000
*BEAM SECTION,SECTION=CIRC,ELSET=ESEC_3,MATERIAL=SolidMaterial
873.145432783
1.000000000, -0.000000000, 0.000000000
*BEAM SECTION,SECTION=CIRC,ELSET=ESEC_4,MATERIAL=SolidMaterial
1655.322716399
0.500000000, -0.866025404, 0.000000000
*BEAM SECTION,SECTION=CIRC,ELSET=ESEC_5,MATERIAL=SolidMaterial
2437.500000000
0.000000000, 1.000000000, -0.000000000
*BEAM SECTION,SECTION=CIRC,ELSET=ESEC_6,MATERIAL=SolidMaterial
3000.000000051
-0.000000000, 1.000000000, 0.000000000
*BEAM SECTION,SECTION=CIRC,ELSET=ESEC_7,MATERIAL=SolidMaterial
4500.000000000
-0.000000000, 1.000000000, 0.000000000
*BEAM SECTION,SECTION=CIRC,ELSET=ESEC_8,MATERIAL=SolidMaterial
5999.999999980
-0.500000000, -0.866025404, 0.000000000
*NSET,NSET=FemConstraintDisplacement
3, 6, 9, 10, 12, 15, 19
*NSET,NSET=FemLoadTop
2, 4, 8, 11, 14, 17, 20
*BOUNDARY
FemConstraintDisplacement, 1, 6
*STEP
*STATIC
1., 1., 1e-05, 1.
*CLOAD
2, 3, -1000.000000
4, 3, -1000.000000
8, 3, -1000.000000
11, 3, -1000.000000
14, 3, -1000.000000
17, 3, -1000.000000
20, 3, -1000.000000
*NODE FILE
U
*EL FILE
S
*END STEP
