**
** topology: nodes=37 beam_elems=41 components=1 dropped_micro=0 split_iters=5 r_med=3000 merge_tol=3920
**
*Node, NSET=Nall
1, 28310.126779718, -16344.859317103, -14000.000000000
2, 28310.126779667, -16344.859317295, 8545.662802916
3, 31618.100151798, -18254.718634205, -20000.000000000
4, -28310.126779659, -16344.859317325, 12000.000000000
5, -28310.126779718, -16344.859317103, -14000.000000000
6, -31618.100151798, -18254.718634205, -20000.000000000
7, 0.000000000, 32689.718634205, -14000.000000000
8, -0.000000000, 32689.718634205, 8545.662803000
9, 0.000000000, 36509.437268411, -20000.000000000
10, 0.000000000, 2069.014260195, -20000.000000000
11, -0.000000000, 2069.014260195, -15545.662802999
12, -0.000000000, 2069.014260195, 10000.000000000
13, -0.000000000, -2069.014260195, -20000.000000000
14, -0.000000000, -2069.014260195, -15545.662803019
15, -0.000000000, -2069.014260195, 10000.000000000
16, -0.000000000, 21230.562731589, -20000.000000000
17, -0.000000000, 21230.562731589, -14000.000000000
18, -0.000000000, 25050.281365794, 8545.662803000
19, -18386.206662202, -10615.281365795, -20000.000000000
20, -18386.206662323, -10615.281365572, -14000.000000000
** ... 17 like lines cut
*Element, TYPE=B31, ELSET=Eall
1, 1, 2
2, 1, 3
3, 1, 24
4, 4, 5
5, 5, 6
6, 5, 34
7, 7, 8
8, 7, 9
9, 8, 36
10, 10, 11
11, 11, 12
12, 11, 18
13, 11, 37
14, 12, 18
15, 13, 14
16, 14, 15
17, 14, 24
18, 14, 25
19, 14, 33
20, 14, 35
** ... 21 like lines cut
*ELSET,ELSET=ESEC_1
25, 26, 32, 34, 35, 36
*ELSET,ELSET=ESEC_2
12, 17, 18
*ELSET,ELSET=ESEC_3
13, 14, 19, 20, 21, 22
*ELSET,ELSET=ESEC_4
10, 11
*ELSET,ELSET=ESEC_5
15, 16, 37, 38, 39, 40, 41
*ELSET,ELSET=ESEC_6
1, 4, 24, 28, 31
*ELSET,ELSET=ESEC_7
7
*ELSET,ELSET=ESEC_8
2, 3, 5, 6, 8, 9, 23, 27, 29, 30, 33
*MATERIAL, NAME=SolidMaterial
*ELASTIC
210000, 0.3
*BEAM SECTION,SECTION=CIRC,ELSET=ESEC_1,MATERIAL=SolidMaterial
799.999999984
-0.881905362, 0.471426487, 0.000000000
*BEAM SECTION,SECTION=CIRC,ELSET=ESEC_2,MATERIAL=SolidMaterial
826.815317714
1.000000000, 0.000000000, -0.000000000
*BEAM SECTION,SECTION=CIRC,ELSET=ESEC_3,MATERIAL=SolidMaterial
873.145432783
1.000000000, -0.000000000, 0.000000000
*BEAM SECTION,SECTION=CIRC,ELSET=ESEC_4,MATERIAL=SolidMaterial
1625.000000000
0.000000000, 1.000000000, -0.000000000
*BEAM SECTION,SECTION=CIRC,ELSET=ESEC_5,MATERIAL=SolidMaterial
2437.500000000
0.000000000, 1.000000000, -0.000000000
*BEAM SECTION,SECTION=CIRC,ELSET=ESEC_6,MATERIAL=SolidMaterial
3000.000000051
-0.000000000, 1.000000000, 0.000000000
*BEAM SECTION,SECTION=CIRC,ELSET=ESEC_7,MATERIAL=SolidMaterial
4500.000000000
-0.000000000, 1.000000000, 0.000000000
*BEAM SECTION,SECTION=CIRC,ELSET=ESEC_8,MATERIAL=SolidMaterial
6000.000000004
-0.500000000, -0.866025404, 0.000000000
*NSET,NSET=FemConstraintDisplacement
3, 6, 9, 10, 13, 16, 19, 23
*NSET,NSET=FemLoadTop
4, 21
*BOUNDARY
FemConstraintDisplacement, 1, 6
*STEP
*STATIC
1., 1., 1e-05, 1.
*CLOAD
4, 3, -1000.000000
21, 3, -1000.000000
*NODE FILE
U
*EL FILE
S
*END STEP
