*Node, NSET=Nall
1, 28310.126779718, -16344.859317103, -14000.000000000
2, 28310.126779659, -16344.859317325, 12000.000000000
3, 31618.100152190, -18254.718634428, -14000.000000000
4, 31618.100151798, -18254.718634205, -20000.000000000
5, -28310.126779659, -16344.859317325, 12000.000000000
6, -28310.126779718, -16344.859317103, -14000.000000000
7, -31618.100151798, -18254.718634205, -20000.000000000
8, -31618.100152190, -18254.718634428, -14000.000000000
9, 0.000000000, 32689.718634205, -14000.000000000
10, -0.000000000, 32689.718634205, 12000.000000000
11, 0.000000000, 36509.437268411, -20000.000000000
12, -0.000000000, 36509.437268411, -14000.000000000
13, 0.000000000, 2069.014260195, -20000.000000000
14, -0.000000000, 2069.014260195, 12000.000000000
15, -0.000000000, -2069.014260195, -20000.000000000
16, -0.000000000, -2069.014260195, 12000.000000000
17, -0.000000000, 21230.562731589, -20000.000000000
18, -0.000000000, 21230.562731589, -14000.000000000
19, -0.000000000, 25050.281365795, -14000.000000000
20, -0.000000000, 25050.281365794, 12000.000000000
** ... 46 like lines cut
*Element, TYPE=B31, ELSET=Eall
1, 1, 2
2, 3, 4
3, 5, 6
4, 7, 8
5, 9, 10
6, 11, 12
7, 13, 14
8, 15, 16
9, 17, 18
10, 19, 20
11, 21, 22
12, 23, 24
13, 25, 26
14, 27, 28
15, 29, 30
16, 31, 32
17, 33, 34
18, 35, 36
19, 37, 38
20, 39, 40
** ... 13 like lines cut
*ELSET,ELSET=ESEC_1
17, 18, 19, 20, 21, 22
*ELSET,ELSET=ESEC_2
15, 16, 23
*ELSET,ELSET=ESEC_3
25, 26, 28, 29, 30, 32
*ELSET,ELSET=ESEC_4
7, 8
*ELSET,ELSET=ESEC_5
1, 3, 5, 10, 12, 14
*ELSET,ELSET=ESEC_6
33
*ELSET,ELSET=ESEC_7
2, 4, 6, 9, 11, 13, 24, 27, 31
*MATERIAL, NAME=SolidMaterial
*ELASTIC
210000, 0.3
*BEAM SECTION,SECTION=CIRC,ELSET=ESEC_1,MATERIAL=SolidMaterial
799.999999984
0.866025404, -0.500000000, 0.000000000
*BEAM SECTION,SECTION=CIRC,ELSET=ESEC_2,MATERIAL=SolidMaterial
826.815317714
-0.500000000, -0.866025404, 0.000000000
*BEAM SECTION,SECTION=CIRC,ELSET=ESEC_3,MATERIAL=SolidMaterial
873.145432783
0.500000000, 0.866025404, -0.000000000
*BEAM SECTION,SECTION=CIRC,ELSET=ESEC_4,MATERIAL=SolidMaterial
1625.000000000
0.000000000, 1.000000000, -0.000000000
*BEAM SECTION,SECTION=CIRC,ELSET=ESEC_5,MATERIAL=SolidMaterial
3000.000000042
-0.000000000, 1.000000000, 0.000000000
*BEAM SECTION,SECTION=CIRC,ELSET=ESEC_6,MATERIAL=SolidMaterial
3250.000000000
-0.000000000, 1.000000000, 0.000000000
*BEAM SECTION,SECTION=CIRC,ELSET=ESEC_7,MATERIAL=SolidMaterial
5999.999999982
0.000000000, -1.000000000, -0.000000000
*NSET,NSET=FemConstraintDisplacement
4, 7, 11, 13, 15, 17, 21, 26, 65
*NSET,NSET=FemLoadTop
2, 5, 10, 14, 16, 20, 23, 28, 48, 53, 62, 66
*BOUNDARY
FemConstraintDisplacement, 1, 6
*STEP
*STATIC
1., 1., 1e-05, 1.
*CLOAD
2, 3, -1000.000000
5, 3, -1000.000000
10, 3, -1000.000000
14, 3, -1000.000000
16, 3, -1000.000000
20, 3, -1000.000000
23, 3, -1000.000000
28, 3, -1000.000000
48, 3, -1000.000000
53, 3, -1000.000000
62, 3, -1000.000000
66, 3, -1000.000000
*NODE FILE
U
*EL FILE
S
*END STEP
