**
** IGES jacket → B31 PIPE (auto)
**
*Heading
Auto-generated jacket beam model; nodes=35, beam_elems=36, components=1, dropped_micro=0, split_iters=3, r_med=3000, merge_tol=3920
**
*Node, NSET=Nall
1, 28310.126779718, -16344.859317103, -14000.000000000
2, 28310.126779659, -16344.859317325, 12000.000000000
3, 31618.100151798, -18254.718634205, -20000.000000000
4, -28310.126779659, -16344.859317325, 12000.000000000
5, -28310.126779718, -16344.859317103, -14000.000000000
6, -31618.100151798, -18254.718634205, -20000.000000000
7, 0.000000000, 32689.718634205, -14000.000000000
8, -0.000000000, 32689.718634205, 12000.000000000
9, 0.000000000, 36509.437268411, -20000.000000000
10, 0.000000000, 2069.014260195, -20000.000000000
11, -0.000000000, 2069.014260195, -15545.662802999
12, -0.000000000, 2069.014260195, 10000.000000000
13, -0.000000000, 21230.562731589, -20000.000000000
14, -0.000000000, 21230.562731589, -14000.000000000
15, -0.000000000, 25050.281365794, 8545.662803000
16, -18386.206662202, -10615.281365795, -20000.000000000
17, -18386.206662323, -10615.281365572, -14000.000000000
18, -21694.180034854, -12525.140682675, 12000.000000000
19, 18386.206662324, -10615.281365572, -14000.000000000
20, 18386.206662202, -10615.281365795, -20000.000000000
** ... 15 like lines cut
*Element, TYPE=B31, ELSET=Eall
1, 1, 2
2, 1, 3
3, 4, 5
4, 5, 6
5, 7, 8
6, 7, 9
7, 10, 11
8, 11, 12
9, 11, 15
10, 11, 35
11, 12, 15
12, 13, 14
13, 14, 15
14, 15, 24
15, 15, 21
16, 16, 17
17, 17, 18
18, 19, 20
19, 19, 21
20, 21, 22
** ... 16 like lines cut
*ELSET,ELSET=ESEC_1
14, 15, 21, 27, 28, 29
*ELSET,ELSET=ESEC_2
9, 20, 24
*ELSET,ELSET=ESEC_3
10, 11, 22, 23, 25, 26, 30, 31, 32, 33, 34, 35, 36
*ELSET,ELSET=ESEC_4
7, 8
*ELSET,ELSET=ESEC_5
1, 3, 5, 13, 17, 19
*ELSET,ELSET=ESEC_6
2, 4, 6, 12, 16, 18
*MATERIAL, NAME=SolidMaterial
*ELASTIC
210000, 0.3
*BEAM SECTION,SECTION=PIPE,ELSET=ESEC_1,MATERIAL=SolidMaterial
799.999999984, 35.199999999
-0.881905362, 0.471426487, 0.000000000
*BEAM SECTION,SECTION=PIPE,ELSET=ESEC_2,MATERIAL=SolidMaterial
826.815317714, 41.340765886
1.000000000, 0.000000000, -0.000000000
*BEAM SECTION,SECTION=PIPE,ELSET=ESEC_3,MATERIAL=SolidMaterial
873.145432791, 69.851634623
1.000000000, -0.000000000, 0.000000000
*BEAM SECTION,SECTION=PIPE,ELSET=ESEC_4,MATERIAL=SolidMaterial
1625.000000000, 195.000000000
0.000000000, 1.000000000, -0.000000000
*BEAM SECTION,SECTION=PIPE,ELSET=ESEC_5,MATERIAL=SolidMaterial
3000.000000042, 360.000000005
-0.000000000, 1.000000000, 0.000000000
*BEAM SECTION,SECTION=PIPE,ELSET=ESEC_6,MATERIAL=SolidMaterial
5999.999999940, 719.999999993
-0.500000000, -0.866025404, 0.000000000
*NSET,NSET=FemConstraintDisplacement
3, 6, 9, 10, 13, 16, 20
*NSET,NSET=FemLoadTop
2, 4, 8, 18
*BOUNDARY
FemConstraintDisplacement, 1, 6
*STEP
*STATIC
1., 1., 1e-05, 1.
*CLOAD
2, 3, -1000.000000
4, 3, -1000.000000
8, 3, -1000.000000
18, 3, -1000.000000
*NODE FILE
U
*EL FILE
S
*END STEP
