*HEADING
Abaqus DataFile Version 6.14
written by meshio v5.3.5
*NODE
1, -36822.9128289500, -21259.7186343400, -22000.0000000000
2, -36821.7580960600, -21259.7186343400, -22000.0000000000
3, -36822.9128289500, -21259.7186343400, 15000.0000000000
4, 36822.9128289500, -21259.7186343400, 15000.0000000000
5, 36822.9128289500, -21259.7186343400, -22000.0000000000
6, 36821.7580960600, -21259.7186343400, -22000.0000000000
7, 36821.7580960600, -21259.7186343400, -11780.0000000000
8, 26414.4422079300, -21259.7186343400, -11780.0000000000
9, 26414.4422079300, -21259.7186343400, -22000.0000000000
10, -26414.4422079300, -21259.7186343400, -22000.0000000000
11, -26414.4422079300, -21259.7186343400, -11780.0000000000
12, -36821.7580960600, -21259.7186343400, -11780.0000000000
13, -36822.3354625000, -21258.7186063200, -22000.0000000000
14, -36822.3354625000, -21258.7186063200, -11780.0000000000
15, -25609.1001520800, -18254.7186343200, -11780.0000000000
16, -25633.7301660900, -17711.2143834700, -11780.0000000000
17, -28155.2266710300, -13343.8543261000, -11780.0000000000
18, -31618.6775185600, -12245.7186621400, -11780.0000000000
19, -25609.1001520800, -18254.7186343200, -22000.0000000000
20, 25633.7301660900, -17711.2143834700, -22000.0000000000
** ... 238 like lines cut
*ELEMENT, TYPE=C3D4
1,92,112,111,249
2,134,130,14,137
3,135,12,11,151
4,161,137,18,152
5,186,164,185,257
6,147,155,3,151
7,45,37,4,233
8,16,114,29,252
9,114,9,10,115
10,150,149,146,128
11,101,126,123,257
12,112,46,111,246
13,242,118,54,32
14,206,207,228,253
15,79,157,154,128
16,202,215,203,254
17,241,54,112,119
18,63,92,46,111
19,111,110,243,129
20,237,236,232,255
** ... 719 like lines cut
*ELSET, ELSET=gmsh:bounding_entities
0,-1,-2,-3,-4,-5,-6,-7,
-8,-9,-10,13,-12,-13,-14,-15,
-16,-17,-18,-19,-20,-21,-22,-23,
-24,-25,-26
** --- OC4: material for design_space / nondesign_space (injected when missing in main deck) ---
*ELSET, ELSET=nondesign_space
2, 3, 4, 5, 6, 7, 10, 14, 16, 20, 22, 23, 24, 26, 30, 33,
34, 35, 37, 39, 43, 44, 45, 46, 48, 49, 50, 51, 52, 53, 54, 55,
57, 58, 60, 61, 71, 73, 75, 78, 79, 81, 86, 89, 91, 92, 98, 100,
103, 104, 105, 110, 111, 114, 115, 116, 119, 123, 125, 126, 127, 130, 133, 134,
147, 150, 151, 152, 154, 155, 156, 157, 158, 161, 162, 164, 165, 166, 167, 168,
171, 172, 176, 177, 179, 180, 182, 188, 190, 193, 194, 195, 196, 198, 203, 204,
205, 206, 207, 209, 210, 212, 215, 216, 218, 222, 224, 225, 226, 231, 236, 237,
238, 241, 246, 247, 249, 251, 253, 255, 257, 258, 259, 263, 265, 266, 269, 270,
273, 274, 275, 277, 278, 279, 281, 282, 285, 288, 289, 292, 293, 302, 304, 305,
306, 307, 309, 310, 311, 313, 314, 315, 318, 322, 323, 325, 326, 327, 328, 329,
330, 331, 334, 335, 336, 338, 340, 341, 342, 343, 344, 345, 346, 348, 349, 350,
351, 353, 354, 355, 356, 357, 358, 359, 360, 362, 363, 364, 367, 369, 370, 373,
374, 378, 380, 381, 382, 383, 384, 388, 390, 391, 392, 393, 395, 396, 397, 398,
400, 402, 403, 404, 405, 406, 408, 409, 410, 411, 412, 415, 417, 418, 419, 421,
422, 423, 424, 425, 426, 427, 428, 429, 431, 432, 433, 434, 436, 438, 439, 440,
441, 443, 445, 447, 448, 449, 450, 451, 453, 454, 455, 460, 461, 465, 466, 467,
468, 473, 475, 487, 489, 494, 495, 497, 498, 505, 506, 507, 508, 510, 511, 512,
513, 514, 515, 521, 522, 527, 529, 533, 536, 538, 543, 547, 548, 549, 550, 552,
553, 554, 555, 556, 558, 559, 561, 562, 563, 570, 575, 577, 578, 579, 580, 581,
582, 584, 585, 587, 588, 589, 591, 592, 594, 595, 600, 601, 602, 603, 604, 606,
607, 609, 613, 614, 615, 616, 617, 619, 622, 624, 634, 635, 639, 641, 642, 645,
646, 652, 660, 669, 675, 676, 678, 683, 685, 686, 692, 697, 700, 702, 703, 706,
707, 708, 709, 711, 712, 713, 715, 716, 717, 718, 719, 724, 732, 733,
*ELSET, ELSET=design_space
1, 8, 9, 11, 12, 13, 15, 17, 18, 19, 21, 25, 27, 28, 29, 31,
32, 36, 38, 40, 41, 42, 47, 56, 59, 62, 63, 64, 65, 66, 67, 68,
69, 70, 72, 74, 76, 77, 80, 82, 83, 84, 85, 87, 88, 90, 93, 94,
95, 96, 97, 99, 101, 102, 106, 107, 108, 109, 112, 113, 117, 118, 120, 121,
122, 124, 128, 129, 131, 132, 135, 136, 137, 138, 139, 140, 141, 142, 143, 144,
145, 146, 148, 149, 153, 159, 160, 163, 169, 170, 173, 174, 175, 178, 181, 183,
184, 185, 186, 187, 189, 191, 192, 197, 199, 200, 201, 202, 208, 211, 213, 214,
217, 219, 220, 221, 223, 227, 228, 229, 230, 232, 233, 234, 235, 239, 240, 242,
243, 244, 245, 248, 250, 252, 254, 256, 260, 261, 262, 264, 267, 268, 271, 272,
276, 280, 283, 284, 286, 287, 290, 291, 294, 295, 296, 297, 298, 299, 300, 301,
303, 308, 312, 316, 317, 319, 320, 321, 324, 332, 333, 337, 339, 347, 352, 361,
365, 366, 368, 371, 372, 375, 376, 377, 379, 385, 386, 387, 389, 394, 399, 401,
407, 413, 414, 416, 420, 430, 435, 437, 442, 444, 446, 452, 456, 457, 458, 459,
462, 463, 464, 469, 470, 471, 472, 474, 476, 477, 478, 479, 480, 481, 482, 483,
484, 485, 486, 488, 490, 491, 492, 493, 496, 499, 500, 501, 502, 503, 504, 509,
516, 517, 518, 519, 520, 523, 524, 525, 526, 528, 530, 531, 532, 534, 535, 537,
539, 540, 541, 542, 544, 545, 546, 551, 557, 560, 564, 565, 566, 567, 568, 569,
571, 572, 573, 574, 576, 583, 586, 590, 593, 596, 597, 598, 599, 605, 608, 610,
611, 612, 618, 620, 621, 623, 625, 626, 627, 628, 629, 630, 631, 632, 633, 636,
637, 638, 640, 643, 644, 647, 648, 649, 650, 651, 653, 654, 655, 656, 657, 658,
** ... 4 like lines cut
**
*NSET, NSET=fixed_zmin
1, 2, 5, 6, 9, 10, 13, 19, 20, 21, 22, 23, 24, 25, 26, 27,
28, 29, 30, 31, 32, 38, 40, 41, 48, 60, 61, 62, 63, 64, 65, 66,
67, 68, 69, 70, 71, 72, 73, 74, 115, 116, 117,
** --- Static step (CalculiX): fixed_zmin boundary + concentrated loads (from_cad_b31 style) ---
*MATERIAL, NAME=MSteel
*ELASTIC
210000.0, 0.3
** --- OC4 pipeline: design_space / nondesign_space (wiki example_3 style) ---
*Solid section, Elset=design_space, Material=MSteel
*Solid section, Elset=nondesign_space, Material=MSteel
**
*STEP
*STATIC
1., 1., 1e-05, 1.
*BOUNDARY
fixed_zmin, 1, 3, 0
*CLOAD
3, 3, -5000000
*NODE FILE
U
*EL FILE
S
*END STEP
