** written by FreeCAD inp file writer for CalculiX,Abaqus meshes
** highest dimension mesh elements only.

** Nodes
*Node, NSET=Nall
1, 0, 28870, 12000
2, 0, 28870, -14000
3, -25002.15340726, -14435, -14000
4, -25002.15340726, -14435, 12000
5, -16668.1022715, 0, 12000
6, 25002.15340726, -14435, -14000
7, 25002.15340726, -14435, 12000
8, 0, -14435, 12000
9, 16668.1022715, 4.547e-12, 12000
10, 0, 28870, 5500
11, 0, 28870, -1000
12, 0, 28870, -7500
13, -3125.269175908, 23456.875, -14000
14, -6250.538351817, 18043.75, -14000
15, -9375.807527725, 12630.625, -14000
16, -12501.07670363, 7217.500000002, -14000
17, -15626.34587954, 1804.375000003, -14000
18, -18751.61505545, -3608.749999997, -14000
19, -21876.88423136, -9021.874999996, -14000
20, -25002.15340726, -14435, 5500
** ... 212 like lines cut


** Volume elements
*Element, TYPE=C3D4, ELSET=Evolumes
482, 214, 80, 211, 218
483, 67, 93, 211, 216
484, 80, 67, 93, 211
485, 211, 93, 80, 223
486, 211, 67, 216, 218
487, 148, 213, 215, 220
488, 211, 80, 214, 223
489, 124, 86, 100, 232
490, 213, 97, 215, 220
491, 211, 80, 67, 218
492, 216, 67, 191, 218
493, 93, 211, 216, 223
494, 208, 191, 67, 218
495, 213, 215, 217, 229
496, 218, 191, 216, 224
497, 213, 148, 215, 229
498, 181, 107, 213, 227
499, 97, 213, 215, 228
500, 215, 148, 220, 229
501, 208, 67, 191, 85
** ... 667 like lines cut

** Define element set Eall
*ELSET, ELSET=Eall
Evolumes

*Nset, Nset=bottom_fix
3, 6, 13,
**
*Material, Name=Material-design
*Elastic
200000.0, 0.27
*Density
7.833e-09
**
*Solid section, Elset=design_space, Material=Material-design
**
*Step
*Static
**
*Boundary, op=NEW
*Boundary
** bottom_fix fallback
bottom_fix, 1, 1, 0
bottom_fix, 2, 2, 0
bottom_fix, 3, 3, 0
**
*Cload, op=NEW
*Cload
165, 3, -1000
**
*Node file
RF, U
*El file
S
*End step

